Version 4
SHEET 1 880 680
WIRE 384 -256 304 -256
WIRE 464 -256 384 -256
WIRE 304 -224 304 -256
WIRE 464 -160 464 -256
WIRE 304 -112 304 -144
WIRE 304 -16 304 -32
WIRE 464 -16 464 -96
WIRE 464 -16 304 -16
WIRE 304 0 304 -16
WIRE 144 80 144 -16
WIRE 256 80 144 80
WIRE 144 128 144 80
WIRE -112 176 -208 176
WIRE 32 176 -32 176
WIRE 80 176 32 176
WIRE -208 224 -208 176
FLAG 144 224 0
FLAG 304 96 0
FLAG -288 256 0
FLAG -208 256 0
FLAG -288 224 +VCC
FLAG 384 -256 +VCC
FLAG 144 -96 +VCC
FLAG 32 256 0
SYMBOL npn 80 128 R0
SYMATTR InstName Q1
SYMATTR Value BC548B
SYMBOL res 128 -112 R0
SYMATTR InstName R1
SYMATTR Value 10k
SYMATTR SpiceLine tol=5
SYMBOL res -16 160 R90
WINDOW 0 0 56 VBottom 2
WINDOW 3 32 56 VTop 2
SYMATTR InstName R2
SYMATTR Value 3k
SYMATTR SpiceLine tol=5
SYMBOL ind 288 -128 R0
SYMATTR InstName L1
SYMATTR Value 3m
SYMBOL res 288 -240 R0
SYMATTR InstName R3
SYMATTR Value 133
SYMBOL diode 480 -96 R180
WINDOW 0 24 64 Left 2
WINDOW 3 24 0 Left 2
SYMATTR InstName D1
SYMATTR Value D1n4007
SYMBOL MiniSyms4\\voltage- -208 240 R0
WINDOW 123 0 0 Left 2
WINDOW 39 0 0 Left 2
WINDOW 3 -18 50 Left 2
SYMATTR InstName V1
SYMATTR Value PULSE(0 3.3 0 1 1 0 1 100)
SYMBOL MiniSyms4\\voltage- -288 240 R0
WINDOW 123 0 0 Left 2
WINDOW 39 0 0 Left 2
SYMATTR InstName V2
SYMATTR Value 24
SYMBOL nmos 256 0 R0
SYMATTR InstName M1
SYMATTR Value IRF540
SYMBOL res 16 160 R0
SYMATTR InstName R4
SYMATTR Value 10k
SYMATTR SpiceLine tol=5
TEXT -224 432 Left 2 !.tran 0 5 0.5
TEXT -232 464 Left 2 !.include MOSFET.lib
TEXT -232 496 Left 2 !.include 1N4007.lib
